/*--------------------------------*- C++ -*----------------------------------*\
| =========                 |                                                 |
| \\      /  F ield         | foam-extend: Open Source CFD                    |
|  \\    /   O peration     | Version:     4.1                                |
|   \\  /    A nd           | Web:         http://www.foam-extend.org         |
|    \\/     M anipulation  |                                                 |
\*---------------------------------------------------------------------------*/
FoamFile
{
    version     2.0;
    format      ascii;
    class       dictionary;
    object      changePatchTypeDict;
}
// * * * * * * * * * * * * * * * * * * * * * * * * * * * * * * * * * * * * * //

dictionaryReplacement
{
    U
    {
        internalField   uniform (1.0e-8 0 0);

        boundaryField
        {
            wall
            {
                type            fixedValue;
                value           uniform (0 0 0);
            }

            chamber_to_channel
            {
                type            fixedValue;
                value           uniform (0 0 0);
            }
        }
    }

    T
    {
        internalField   uniform 300;

        boundaryField
        {
            wall
            {
                type            fixedValue;
                value           uniform 300;
            }

            chamber_to_channel
            {
                type            solidWallMixedTemperatureCoupled;
                neighbourRegionName channel;
                neighbourPatchName channel_to_chamber;
                neighbourFieldName T;
                Kappa           Kappa;
                value           uniform 300;
            }
        }
    }

    p
    {
        internalField   uniform 0;

        boundaryField
        {
            wall
            {
                type            buoyantPressure;
                rho             rhok;
                value           uniform 0;
            }

            chamber_to_channel
            {
                type            buoyantPressure;
                rho             rhok;
                value           uniform 0;
            }
        }
    }
}


// ************************************************************************* //
