/*--------------------------------*- C++ -*----------------------------------*\
| =========                 |                                                 |
| \\      /  F ield         | foam-extend: Open Source CFD                    |
|  \\    /   O peration     | Version:     4.1                                |
|   \\  /    A nd           | Web:         http://www.foam-extend.org         |
|    \\/     M anipulation  |                                                 |
\*---------------------------------------------------------------------------*/
FoamFile
{
    version     2.0;
    format      ascii;
    class       dictionary;
    object      changePatchTypeDict;
}
// * * * * * * * * * * * * * * * * * * * * * * * * * * * * * * * * * * * * * //

dictionaryReplacement
{
    U
    {
        internalField   uniform (0 0 0);

        boundaryField
        {
            inlet
            {
                type            fixedValue;
                value           uniform ( 0.001 0 0 );
            }

            outlet
            {
                type            inletOutlet;
                inletValue      uniform ( 0 0 0 );
            }

            wall
            {
                type            fixedValue;
                value           uniform ( 0 0 0 );
            }

            channel_to_chamber
            {
                type            fixedValue;
                value           uniform (0 0 0);
            }
        }
    }

    T
    {
        internalField   uniform 343;

        boundaryField
        {
            inlet
            {
                type            fixedValue;
                value           uniform 343;
            }

            outlet
            {
                type            zeroGradient;
            }

            wall
            {
                type            zeroGradient;
            }

            channel_to_chamber
            {
                type            solidWallMixedTemperatureCoupled;
                neighbourRegionName chamber;
                neighbourPatchName chamber_to_channel;
                neighbourFieldName T;
                Kappa           Kappa;
                value           uniform 300;
            }
        }
    }

    p
    {
        internalField   uniform 0;

        boundaryField
        {
            inlet
            {
                type            zeroGradient;
            }

            outlet
            {
                type            fixedValue;
                value           uniform 0;
            }

            wall
            {
                type            zeroGradient;
            }

            channel_to_chamber
            {
                type            zeroGradient;
            }
        }
    }

}


// ************************************************************************* //
